output/nygrid_compact_2019/ac_checkpoint/S3_2019_SHOULDER_LIGHT_LOAD_PUBLIC/fresh_PF_branch_audit.csv
branch_row,device_key,from_bus,to_bus,online,rate_a_mva,from_mva,to_mva,from_overload_mva,to_overload_mva,angle_deg,angle_min_deg,angle_max_deg,angle_below_min_deg,angle_above_max_deg,violated,invalid_limit_bounds,stored_terminal_flow_error_mva,stored_terminal_flow_inconsistent
1,NPCC_S7:BRANCH_ROW:33,37,38,1,2500,52.9374585311922,29.7729608751618,0,0,-0.113637308213178,-360,360,0,0,0,0,7.94410929039127e-15,0
2,NPCC_S7:BRANCH_ROW:34,37,39,1,3388,590.844922584977,586.94345695862,0,0,2.46019972266079,-360,360,0,0,0,0,1.16375100519116e-13,0
3,NPCC_S7:BRANCH_ROW:35,37,40,1,2500,16.0437382768209,21.8585713837005,0,0,0.068951517375087,-360,360,0,0,0,0,3.66205343881779e-15,0
4,NPCC_S7:BRANCH_ROW:36,37,43,1,3745.98196383403,638.294159341193,652.366357568167,0,0,-6.87841396810359,-360,360,0,0,0,0,1.17185710042169e-13,0
5,NPCC_S7:BRANCH_ROW:37,38,69,1,1216,222.37445858204,223.502803147536,0,0,-5.87112509872228,-360,360,0,0,0,0,1.4210854715202e-14,0
6,NPCC_S7:BRANCH_ROW:38,39,73,1,2500,365.034296878418,362.642365711607,0,0,3.77710777723502,-360,360,0,0,0,0,5.32907051820075e-15,0
7,NPCC_S7:BRANCH_ROW:39,39,73,1,2500,365.034296878418,362.642365711607,0,0,3.77710777723502,-360,360,0,0,0,0,5.32907051820075e-15,0
8,NPCC_S7:BRANCH_ROW:40,40,44,1,1328.76341358641,212.353419945498,219.357182817121,0,0,-6.61300127074893,-360,360,0,0,0,0,2.05074992573796e-13,0
9,NPCC_S7:BRANCH_ROW:41,41,42,1,2500,88.0636569953185,81.5241601869951,0,0,0.11461165052213,-360,360,0,0,0,0,1.4238583238574e-14,0
10,NPCC_S7:BRANCH_ROW:42,41,45,1,314.254622579561,50.1168147321594,55.1142381765638,0,0,-7.09961119327317,-360,360,0,0,0,0,3.5527136788005e-15,0
11,NPCC_S7:BRANCH_ROW:43,43,44,1,2500,58.932864623163,58.7646928034565,0,0,0.334364214729753,-360,360,0,0,0,0,7.10009628718115e-13,0
12,NPCC_S7:BRANCH_ROW:44,43,50,1,3463.47124449306,316.769804111051,321.508077556743,0,0,-4.95048477837138,-360,360,0,0,0,0,5.72857867687912e-14,0
13,NPCC_S7:BRANCH_ROW:45,43,50,1,3463.47124449306,316.769804111051,321.508077556743,0,0,-4.95048477837138,-360,360,0,0,0,0,5.72857867687912e-14,0
14,NPCC_S7:BRANCH_ROW:46,44,45,1,2500,125.727100304874,124.991074460164,0,0,1.45254173853898,-360,360,0,0,0,0,3.50982220289452e-13,0
15,NPCC_S7:BRANCH_ROW:47,44,48,1,6896.14528055676,253.185638019539,264.184575094972,0,0,-16.3123042476958,-360,360,0,0,0,0,5.85928550210846e-14,0
16,NPCC_S7:BRANCH_ROW:48,45,46,1,2040.85471944324,62.784542410809,67.8902001941662,0,0,-14.5442694629162,-360,360,0,0,0,0,1.4210854715202e-14,0
17,NPCC_S7:BRANCH_ROW:49,45,51,1,489.56239109923,47.644206452922,50.5578271089195,0,0,-5.5120263429459,-360,360,0,0,0,0,7.105427357601e-15,0
18,NPCC_S7:BRANCH_ROW:50,45,71,1,166.495119914644,15.257860857946,12.7475316992843,0,0,-3.51494510931245,-360,360,0,0,0,0,1.98602732259782e-15,0
19,NPCC_S7:BRANCH_ROW:51,46,47,1,2500,78.2829076752024,80.9627009312681,0,0,-6.31773302161348,-360,360,0,0,0,0,1.06581410364015e-14,0
20,NPCC_S7:BRANCH_ROW:52,46,49,1,2500,2.83296280376087,5.24150896908568,0,0,0.722335539400078,-360,360,0,0,0,0,9.93013661298909e-16,0
21,NPCC_S7:BRANCH_ROW:53,47,48,1,2500,170.102338844639,167.031103271908,0,0,3.09715649829486,-360,360,0,0,0,0,3.17764371615651e-14,0
22,NPCC_S7:BRANCH_ROW:54,50,51,1,2500,210.556848272291,202.334284109644,0,0,1.22536438869422,-360,360,0,0,0,0,2.8421709430404e-14,0
23,NPCC_S7:BRANCH_ROW:55,50,52,1,2858.06690137886,354.891612555011,406.565238446048,0,0,-4.44577110727049,-360,360,0,0,0,0,7.12245996859432e-13,0
24,NPCC_S7:BRANCH_ROW:56,51,53,1,290.964700741948,24.989986952632,38.0152315905756,0,0,-4.22686378063795,-360,360,0,0,0,0,4.14314051144892e-14,0
25,NPCC_S7:BRANCH_ROW:57,51,72,1,2500,109.515224445114,131.81418793197,0,0,-0.761622121733833,-360,360,0,0,0,0,3.5527136788005e-15,0
26,NPCC_S7:BRANCH_ROW:58,52,53,1,2500,96.1108900382364,92.9136783778809,0,0,1.44427171532676,-360,360,0,0,0,0,3.76587649952853e-13,0
27,NPCC_S7:BRANCH_ROW:59,53,55,1,997.983883346124,68.5164223818588,72.4666656010603,0,0,-5.1540810414462,-360,360,0,0,0,0,9.32545045515574e-14,0
28,NPCC_S7:BRANCH_ROW:60,53,65,1,785.968397879188,209.868020907657,243.01639989746,0,0,5.984956195236,-360,360,0,0,0,0,2.1656988244172e-13,0
29,NPCC_S7:BRANCH_ROW:61,54,56,1,789.941803,708.167117977277,755.040676998689,0,0,4.2433731089365,-360,360,0,0,0,0,1.53799268932286e-12,0
30,NPCC_S7:BRANCH_ROW:62,54,62,1,789.941803,145.530455123419,147.620113548641,0,0,5.01131101699943,-360,360,0,0,0,0,2.69632010386691e-13,0
31,NPCC_S7:BRANCH_ROW:65,55,57,1,789.941803,350.028095983279,401.94280909662,0,0,2.97979241821361,-360,360,0,0,0,0,7.105427357601e-14,0
32,NPCC_S7:BRANCH_ROW:66,55,59,1,789.941803,93.5932303237778,96.7004149422138,0,0,3.03582155187367,-360,360,0,0,0,0,2.31335954426011e-13,0
33,NPCC_S7:BRANCH_ROW:67,56,58,1,2500,103.330310057468,96.6450050913461,0,0,0.702149383230399,-360,360,0,0,0,0,9.97800366436761e-13,0
34,NPCC_S7:BRANCH_ROW:68,57,59,1,2500,120.247969114911,114.434540016365,0,0,0.0560291336600613,-360,360,0,0,0,0,4.28451967072798e-13,0
35,NPCC_S7:BRANCH_ROW:69,58,60,1,2500,124.328606488941,101.560377567269,0,0,-0.261167656147826,-360,360,0,0,0,0,0,0
36,NPCC_S7:BRANCH_ROW:70,58,62,1,2500,54.6542227084361,56.9461411288734,0,0,0.0657885248325343,-360,360,0,0,0,0,1.41496160925887e-12,0
37,NPCC_S7:BRANCH_ROW:71,59,61,1,2500,19.399634170449,15.6673057844495,0,0,-0.553013942310201,-360,360,0,0,0,0,2.54713714371639e-13,0
38,NPCC_S7:BRANCH_ROW:73,62,63,1,620,124.619628508498,121.731465122522,0,0,5.57629178018876,-360,360,0,0,0,0,1.52559995240039e-13,0
39,NPCC_S7:BRANCH_ROW:74,63,64,1,2500,70.5170826084886,71.8968355289458,0,0,1.41849886387686,-360,360,0,0,0,0,7.105427357601e-15,0
40,NPCC_S7:BRANCH_ROW:75,63,67,1,2500,55.5688723999011,55.5069959012143,0,0,2.88262060827063,-360,360,0,0,0,0,7.32410687763558e-15,0
41,NPCC_S7:BRANCH_ROW:76,64,65,1,2500,73.8417408226183,72.0117782825309,0,0,1.39573028797705,-360,360,0,0,0,0,8.88178419700125e-16,0
42,NPCC_S7:BRANCH_ROW:77,64,68,1,2500,25.1310585285324,34.7052677516447,0,0,-0.169012504624988,-360,360,0,0,0,0,3.97205464519564e-15,0
43,NPCC_S7:BRANCH_ROW:78,66,67,1,2500,120.911969736985,119.300036225333,0,0,-1.35526438834902,-360,360,0,0,0,0,1.58882185807825e-14,0
44,NPCC_S7:BRANCH_ROW:79,66,69,1,2500,110.837333657093,99.0114397805989,0,0,1.43702369148151,-360,360,0,0,0,0,7.105427357601e-15,0
45,NPCC_S7:BRANCH_ROW:81,67,68,1,2500,115.883616293889,110.194773630737,0,0,-1.63313424901876,-360,360,0,0,0,0,1.58882185807825e-14,0
46,NPCC_S7:BRANCH_ROW:82,67,70,1,2500,35.2187940328764,23.4500820750446,0,0,0.146957974212288,-360,360,0,0,0,0,7.20961428115806e-15,0
47,NPCC_S7:BRANCH_ROW:84,68,71,1,2500,37.0677132140108,33.0238568294286,0,0,1.80373161163744,-360,360,0,0,0,0,8.88178419700125e-16,0
48,NPCC_S7:BRANCH_ROW:85,69,71,1,2500,129.779059669026,130.320035079565,0,0,-2.62169071721184,-360,360,0,0,0,0,3.5527136788005e-15,0
49,NPCC_S7:BRANCH_ROW:86,70,71,1,2500,23.4500820750442,23.7082788746861,0,0,0.0236393884063943,-360,360,0,0,0,0,3.83469168400608e-15,0
50,NPCC_S7:BRANCH_ROW:87,71,72,1,2500,829.98764803751,752.616155139131,0,0,-2.75870335536729,-360,360,0,0,0,0,1.4210854715202e-14,0
51,NPCC_S7:BRANCH_ROW:88,73,74,0,1599.84337349398,0,0,0,0,2.39335385831038,-360,360,0,0,0,0,0,0
52,NPCC_S7:BRANCH_ROW:89,73,74,0,1599.84337349398,0,0,0,0,2.39335385831038,-360,360,0,0,0,0,0,0
53,NPCC_S7:BRANCH_ROW:90,74,77,1,2500,102.652706723419,102.242435767174,0,0,0.256561833730867,-360,360,0,0,0,0,2.82199094253335e-12,0
54,NPCC_S7:BRANCH_ROW:91,74,78,1,2889.50495049505,559.063147031951,559.196801044575,0,0,1.44676899125413,-360,360,0,0,0,0,2.90072055560417e-12,0
55,NPCC_S7:BRANCH_ROW:92,74,78,1,2889.50495049505,559.063147031951,559.196801044575,0,0,1.44676899125413,-360,360,0,0,0,0,2.90072055560417e-12,0
56,NPCC_S7:BRANCH_ROW:94,76,77,0,4611.31325301205,0,0,0,0,0.00168538771527782,-360,360,0,0,0,0,0,0
57,NPCC_S7:BRANCH_ROW:95,78,79,1,908.848753535103,194.696559242316,192.091370619969,0,0,1.58519870129742,-360,360,0,0,0,0,7.1111094275675e-13,0
58,NPCC_S7:BRANCH_ROW:96,78,80,1,984.654731457801,145.786695173941,107.622128377601,0,0,2.79949412426672,-360,360,0,0,0,0,2.92964275105423e-14,0
59,NPCC_S7:BRANCH_ROW:97,78,81,1,503.818330764024,55.8454460863163,56.4008101779534,0,0,0.701067272962694,-360,360,0,0,0,0,7.17964671768478e-13,0
60,NPCC_S7:BRANCH_ROW:98,78,82,1,451.473569126203,122.381519955111,120.817520304222,0,0,2.10496236100126,-360,360,0,0,0,0,4.2632564145606e-14,0
61,NPCC_S7:BRANCH_ROW:219,40,41,1,2500,213.80476482713,214.549203056624,0,0,1.93915166106323,-360,360,0,0,0,0,3.03543989777123e-14,0
62,NPCC_S7:BRANCH_ROW:220,49,48,1,2500,42.4480811830989,42.7515685814163,0,0,-3.9429120627187,-360,360,0,0,0,0,7.58859974442808e-15,0
63,NPCC_S7:BRANCH_ROW:222,54,52,1,4583.01611665388,400.983036396789,415.127726303135,0,0,5.97260403847934,-360,360,0,0,0,0,3.81317245938781e-13,0
64,NPCC_S7:BRANCH_ROW:223,54,55,1,2500,275.249914842838,279.463723503138,0,0,2.2627947123599,-360,360,0,0,0,0,6.65941940602578e-13,0
65,NPCC_S7:BRANCH_ROW:224,56,57,1,2500,62.6835781248763,68.3177089595835,0,0,0.999214021637016,-360,360,0,0,0,0,1.37962443879385e-13,0
66,NPCC_S7:BRANCH_ROW:225,58,59,1,2500,65.7005719411819,65.7280473344202,0,0,0.353093772066678,-360,360,0,0,0,0,2.54419510612519e-12,0
67,NPCC_S7:BRANCH_ROW:226,60,61,1,2500,20.007280443403,19.7680963466591,0,0,0.0612474859043033,-360,360,0,0,0,0,3.66205343881779e-15,0
68,NPCC_S7:BRANCH_ROW:227,75,76,1,2500,8.46315825695584,8.46323265127664,0,0,-0.0364136088340992,-360,360,0,0,0,0,1.52655665885959e-16,0
69,NPCC_S7:BRANCH_ROW:234,38,39,1,1216,233.059177407192,237.629197034203,0,0,2.57383703087397,-360,360,0,0,0,0,2.92964275105423e-14,0
70,NPCC_S7:BRANCH_ROW:235,73,9002,0,2432,0,0,0,0,1.25343055728974,-360,360,0,0,0,0,0,0
71,NPCC_S7:BRANCH_ROW:236,9002,74,0,2432,0,0,0,0,1.13992330102064,-360,360,0,0,0,0,0,0
72,NPCC_S7:BRANCH_ROW:237,74,78,1,866.851485148515,168.922621575547,168.006648789977,0,0,1.44676899125413,-360,360,0,0,0,0,2.86428933843956e-14,0
73,NPCC_S7:BRANCH_ROW:238,77,78,1,650.138613861386,105.206980833199,104.645237290978,0,0,1.19020715752326,-360,360,0,0,0,0,1.46482137552712e-14,0
74,NPCC_S7:BRANCH_ROW:239,78,81,1,1158.78216075726,128.234985597687,129.510239199968,0,0,0.701067272962694,-360,360,0,0,0,0,1.4210854715202e-14,0
75,NPCC_S7:BRANCH_ROW:240,78,79,1,1390.53859290871,297.408140115373,293.428592115976,0,0,1.58519870129742,-360,360,0,0,0,0,1.75778565063254e-13,0
76,NPCC_S7:BRANCH_ROW:241,78,82,1,1390.53859290871,376.308000138385,371.498895127605,0,0,2.10496236100126,-360,360,0,0,0,0,1.71121351098581e-13,0
77,NPCC_S7:BRANCH_ROW:242,78,9003,1,2865.3452685422,174.620560367529,179.591978821765,0,0,1.23483598614128,-360,360,0,0,0,0,1.93288521312744e-13,0
78,NPCC_S7:BRANCH_ROW:243,9003,80,1,5000,202.139013972494,207.77142735892,0,0,1.56465813812544,-360,360,0,0,0,0,2.00971834711523e-13,0
79,NPCC_S7:BRANCH_ROW:244,81,80,1,2950,198.122790035926,207.378675178411,0,0,2.09842685130403,-360,360,0,0,0,0,7.6856948015745e-13,0
80,NPCC_S7:BRANCH_ROW:245,39,9001,1,5000,111.882301709052,111.290247046226,0,0,2.19588543104076,-360,360,0,0,0,0,1.46482137552712e-14,0
81,NPCC_S7:BRANCH_ROW:246,9001,73,1,5000,111.290247046226,110.968290852596,0,0,1.58122234619425,-360,360,0,0,0,0,1.43214466921978e-14,0
82,PERFORM2019:AC:651:858:1,73,858,1,1216,176.924951442814,177.068315400029,0,0,0.533640587685333,-360,360,0,0,0,0,7.99360577730113e-15,0
83,PERFORM2019:AC:651:858:2,73,858,1,1216,176.924957747991,177.068342808354,0,0,0.533640587685333,-360,360,0,0,0,0,2.84355838317334e-14,0
84,PERFORM2019:AC:651:902:1,73,9002,1,1216,177.266471343439,178.885210705686,0,0,1.25343055728974,-360,360,0,0,0,0,3.75127914954153e-13,0
85,PERFORM2019:AC:651:902:2,73,9002,1,1216,177.266477152905,178.885282720662,0,0,1.25343055728974,-360,360,0,0,0,0,3.73305521085241e-13,0
86,PERFORM2019:AC:858:902:1,858,9002,1,1216,177.068301696394,178.530073974886,0,0,0.719789969604411,-360,360,0,0,0,0,2.92964275105423e-14,0
87,PERFORM2019:AC:858:902:2,858,9002,1,1216,177.068356513044,178.529930153845,0,0,0.719789969604411,-360,360,0,0,0,0,2.92964275105423e-14,0
88,PERFORM2019:AC:897:902:1,9002,74,1,1216,357.414419234776,358.045387675827,0,0,1.13992330102064,-360,360,0,0,0,0,7.105427357601e-15,0
89,PERFORM2019:AC:897:902:2,9002,74,1,1216,357.416074379183,358.043524548879,0,0,1.13992330102064,-360,360,0,0,0,0,5.6843418860808e-14,0
90,PERFORM2019:AC:774:1519:1,76,774,1,1216,9.5116402952222,2.51530826487592,0,0,0.00128811548080066,-360,360,0,0,0,0,1.4110564971437e-12,0
91,PERFORM2019:AC:774:900:1,774,77,1,1725,2.51530826486209,11.3154832852277,0,0,0.000397272234477164,-360,360,0,0,0,0,7.05442666179251e-13,0
92,PERFORM2019:AC:900:1519:1,76,77,1,1725,9.60659551665278,11.3857533102726,0,0,0.00168538771527782,-360,360,0,0,0,0,3.33066907387547e-16,0
